<?xml version="1.0" encoding="ISO-8859-1"?>
<febio_spec version="2.0">
	<Module type="solid"/>
	<Control>
		<time_steps>100000</time_steps>
		<step_size>0.01</step_size>
		<max_refs>15</max_refs>
		<max_ups>10</max_ups>
		<dtol>0.001</dtol>
		<etol>0.01</etol>
		<rtol>0</rtol>
		<lstol>0.9</lstol>
		<analysis type="dynamic"/>
		<beta>0.3025</beta>
		<gamma>0.6</gamma>
		<log_level>0</log_level>
	</Control>
	<Globals>
		<Constants>
			<T>0</T>
			<R>0</R>
			<Fc>0</Fc>
		</Constants>
	</Globals>
	<Material>
		<material id="1" name="Mat1" type="neo-Hookean">
			<density>1</density>
			<E>1000</E>
			<v>0.3</v>
		</material>
	</Material>
	<Geometry>
		<Nodes>
			<node id="1">-2.5000000e+000,-5.0000000e-001, 0.0000000e+000</node>
			<node id="2">-2.5000000e+000,-5.0000000e-001, 5.0000000e-001</node>
			<node id="3">-2.5000000e+000,-5.0000000e-001, 1.0000000e+000</node>
			<node id="4">-2.5000000e+000, 0.0000000e+000, 0.0000000e+000</node>
			<node id="5">-2.5000000e+000, 0.0000000e+000, 5.0000000e-001</node>
			<node id="6">-2.5000000e+000, 0.0000000e+000, 1.0000000e+000</node>
			<node id="7">-2.5000000e+000, 5.0000000e-001, 0.0000000e+000</node>
			<node id="8">-2.5000000e+000, 5.0000000e-001, 5.0000000e-001</node>
			<node id="9">-2.5000000e+000, 5.0000000e-001, 1.0000000e+000</node>
			<node id="10">-2.0000000e+000,-5.0000000e-001, 0.0000000e+000</node>
			<node id="11">-2.0000000e+000,-5.0000000e-001, 5.0000000e-001</node>
			<node id="12">-2.0000000e+000,-5.0000000e-001, 1.0000000e+000</node>
			<node id="13">-2.0000000e+000, 0.0000000e+000, 0.0000000e+000</node>
			<node id="14">-2.0000000e+000, 0.0000000e+000, 5.0000000e-001</node>
			<node id="15">-2.0000000e+000, 0.0000000e+000, 1.0000000e+000</node>
			<node id="16">-2.0000000e+000, 5.0000000e-001, 0.0000000e+000</node>
			<node id="17">-2.0000000e+000, 5.0000000e-001, 5.0000000e-001</node>
			<node id="18">-2.0000000e+000, 5.0000000e-001, 1.0000000e+000</node>
			<node id="19">-1.5000000e+000,-5.0000000e-001, 0.0000000e+000</node>
			<node id="20">-1.5000000e+000,-5.0000000e-001, 5.0000000e-001</node>
<!-- ... 79 like lines cut -->
		</Nodes>
		<Elements type="hex8" mat="1" elset="Part1">
			<elem id="1">     1,    10,    13,     4,     2,    11,    14,     5</elem>
			<elem id="2">     2,    11,    14,     5,     3,    12,    15,     6</elem>
			<elem id="3">     4,    13,    16,     7,     5,    14,    17,     8</elem>
			<elem id="4">     5,    14,    17,     8,     6,    15,    18,     9</elem>
			<elem id="5">    10,    19,    22,    13,    11,    20,    23,    14</elem>
			<elem id="6">    11,    20,    23,    14,    12,    21,    24,    15</elem>
			<elem id="7">    13,    22,    25,    16,    14,    23,    26,    17</elem>
			<elem id="8">    14,    23,    26,    17,    15,    24,    27,    18</elem>
			<elem id="9">    19,    28,    31,    22,    20,    29,    32,    23</elem>
			<elem id="10">    20,    29,    32,    23,    21,    30,    33,    24</elem>
			<elem id="11">    22,    31,    34,    25,    23,    32,    35,    26</elem>
			<elem id="12">    23,    32,    35,    26,    24,    33,    36,    27</elem>
			<elem id="13">    28,    37,    40,    31,    29,    38,    41,    32</elem>
			<elem id="14">    29,    38,    41,    32,    30,    39,    42,    33</elem>
			<elem id="15">    31,    40,    43,    34,    32,    41,    44,    35</elem>
			<elem id="16">    32,    41,    44,    35,    33,    42,    45,    36</elem>
			<elem id="17">    37,    46,    49,    40,    38,    47,    50,    41</elem>
			<elem id="18">    38,    47,    50,    41,    39,    48,    51,    42</elem>
			<elem id="19">    40,    49,    52,    43,    41,    50,    53,    44</elem>
			<elem id="20">    41,    50,    53,    44,    42,    51,    54,    45</elem>
<!-- ... 20 like lines cut -->
		</Elements>
	</Geometry>
	<Boundary>
		<fix bc="xyz">
			<node id="1"/>
			<node id="2"/>
			<node id="3"/>
			<node id="4"/>
			<node id="5"/>
			<node id="6"/>
			<node id="7"/>
			<node id="8"/>
			<node id="9"/>
		</fix>
	</Boundary>
	<Loads>
		<surface_load type="pressure" name="pressure">
			<pressure>1</pressure>
			<linear>0</linear>
			<surface>
				<quad4 id="1">     3,    12,    15,     6</quad4>
				<quad4 id="2">     6,    15,    18,     9</quad4>
				<quad4 id="3">    12,    21,    24,    15</quad4>
				<quad4 id="4">    15,    24,    27,    18</quad4>
				<quad4 id="5">    21,    30,    33,    24</quad4>
				<quad4 id="6">    24,    33,    36,    27</quad4>
				<quad4 id="7">    30,    39,    42,    33</quad4>
				<quad4 id="8">    33,    42,    45,    36</quad4>
				<quad4 id="9">    39,    48,    51,    42</quad4>
				<quad4 id="10">    42,    51,    54,    45</quad4>
				<quad4 id="11">    48,    57,    60,    51</quad4>
				<quad4 id="12">    51,    60,    63,    54</quad4>
				<quad4 id="13">    57,    66,    69,    60</quad4>
				<quad4 id="14">    60,    69,    72,    63</quad4>
				<quad4 id="15">    66,    75,    78,    69</quad4>
				<quad4 id="16">    69,    78,    81,    72</quad4>
				<quad4 id="17">    75,    84,    87,    78</quad4>
				<quad4 id="18">    78,    87,    90,    81</quad4>
				<quad4 id="19">    84,    93,    96,    87</quad4>
				<quad4 id="20">    87,    96,    99,    90</quad4>
			</surface>
		</surface_load>
	</Loads>
</febio_spec>
