<?xml version="1.0" encoding="ISO-8859-1"?>
<febio_spec version="2.5">
	<Module type="heat"/>
	<Control>
		<time_steps>10000</time_steps>
		<step_size>1e4</step_size>
		<analysis type="transient"/>
		<plot_level>PLOT_NEVER</plot_level>
		<log_level>0</log_level>
	</Control>
	<Globals>
		<Constants>
			<T>0</T>
			<R>0</R>
			<Fc>0</Fc>
		</Constants>
	</Globals>
	<Material>
		<material id="1" name="Material1" type="isotropic Fourier">
			<density>1e3</density>
			<k>0.56</k>
			<c>4.1813e3</c>
		</material>
	</Material>
	<Geometry>
		<Nodes name="Nodes">
			<node id="1"> 5.9373755e-002,-4.7448703e-001,-3.5703285e-003</node>
			<node id="2"> 5.9373755e-002,-4.7448703e-001, 7.6659501e-002</node>
			<node id="3"> 5.9373755e-002,-3.6198703e-001,-3.5703285e-003</node>
			<node id="4"> 5.9373755e-002,-3.6198703e-001, 7.6659501e-002</node>
			<node id="5"> 1.5892157e-001,-4.7448703e-001,-3.5703285e-003</node>
			<node id="6"> 1.5892157e-001,-4.7448703e-001, 7.6659501e-002</node>
			<node id="7"> 1.5892157e-001,-3.6198703e-001,-3.5703285e-003</node>
			<node id="8"> 1.5892157e-001,-3.6198703e-001, 7.6659501e-002</node>
			<node id="9"> 5.2715846e-002,-5.8718992e-001,-3.5703285e-003</node>
			<node id="10"> 5.2715846e-002,-5.8718992e-001, 3.7870021e-002</node>
			<node id="11"> 1.6082186e-001,-5.8698703e-001,-3.5703285e-003</node>
			<node id="12"> 1.6082186e-001,-5.8698703e-001, 3.7870021e-002</node>
			<node id="13"> 5.9373755e-002,-6.4055632e-001,-3.5703285e-003</node>
			<node id="14"> 5.9373755e-002,-6.4055632e-001, 3.7870021e-002</node>
			<node id="15"> 1.4785476e-001,-6.3536313e-001,-3.5703285e-003</node>
			<node id="16"> 1.4785476e-001,-6.3536313e-001, 3.7870021e-002</node>
			<node id="17"> 6.8029386e-002,-4.6161784e-001, 1.2627281e-001</node>
			<node id="18"> 6.8029386e-002,-3.8217351e-001, 1.2627281e-001</node>
			<node id="19"> 1.5026593e-001,-4.6161784e-001, 1.2627281e-001</node>
			<node id="20"> 1.5026593e-001,-3.8217351e-001, 1.2627281e-001</node>
<!-- ... 6585 like lines cut -->
		</Nodes>
		<Elements type="hex8" mat="1" name="Part1">
			<elem id="1">     1,  1170,  3927,  1169,  1168,  3956,  6062,  3926</elem>
			<elem id="2">  1170,   257,  2203,  3927,  3956,  2205,  3929,  6062</elem>
			<elem id="3">  1169,  3927,  2202,   256,  3926,  6062,  3931,  2201</elem>
			<elem id="4">  3927,  2203,   773,  2202,  6062,  3929,  3521,  3931</elem>
			<elem id="5">  1168,  3956,  6062,  3926,   255,  2200,  3941,  2198</elem>
			<elem id="6">  3956,  2205,  3929,  6062,  2200,   778,  3526,  3941</elem>
			<elem id="7">  3926,  6062,  3931,  2201,  2198,  3941,  3520,   772</elem>
			<elem id="8">  6062,  3929,  3521,  3931,  3941,  3526,  1100,  3520</elem>
			<elem id="9">   257,  1184,  3930,  2203,  2205,  3960,  6063,  3929</elem>
			<elem id="10">  1184,     5,  1186,  3930,  3960,  1185,  3928,  6063</elem>
			<elem id="11">  2203,  3930,  2232,   773,  3929,  6063,  3935,  3521</elem>
			<elem id="12">  3930,  1186,   268,  2232,  6063,  3928,  2231,  3935</elem>
			<elem id="13">  2205,  3960,  6063,  3929,   778,  2230,  3944,  3526</elem>
			<elem id="14">  3960,  1185,  3928,  6063,  2230,   267,  2228,  3944</elem>
			<elem id="15">  3929,  6063,  3935,  3521,  3526,  3944,  3518,  1100</elem>
			<elem id="16">  6063,  3928,  2231,  3935,  3944,  2228,   770,  3518</elem>
			<elem id="17">   256,  2202,  3934,  1177,  2201,  3931,  6064,  3933</elem>
			<elem id="18">  2202,   773,  2222,  3934,  3931,  3521,  3938,  6064</elem>
			<elem id="19">  1177,  3934,  1179,     3,  3933,  6064,  3932,  1178</elem>
			<elem id="20">  3934,  2222,   264,  1179,  6064,  3938,  2221,  3932</elem>
<!-- ... 4332 like lines cut -->
		</Elements>
		<Surface name="ConvectiveHeatFlux1">
			<quad4 id="1">  1169,     1,  1168,  3926</quad4>
			<quad4 id="2">  1169,  3927,  1170,     1</quad4>
			<quad4 id="3">  3927,  2203,   257,  1170</quad4>
			<quad4 id="4">   256,  1169,  3926,  2201</quad4>
			<quad4 id="5">   256,  2202,  3927,  1169</quad4>
			<quad4 id="6">  2202,   773,  2203,  3927</quad4>
			<quad4 id="7">  3926,  1168,   255,  2198</quad4>
			<quad4 id="8">  2201,  3926,  2198,   772</quad4>
			<quad4 id="9">  2203,  3930,  1184,   257</quad4>
			<quad4 id="10">     5,  1186,  3928,  1185</quad4>
			<quad4 id="11">  3930,  1186,     5,  1184</quad4>
			<quad4 id="12">   773,  2232,  3930,  2203</quad4>
			<quad4 id="13">  1186,   268,  2231,  3928</quad4>
			<quad4 id="14">  2232,   268,  1186,  3930</quad4>
			<quad4 id="15">  1185,  3928,  2228,   267</quad4>
			<quad4 id="16">  3928,  2231,   770,  2228</quad4>
			<quad4 id="17">  1177,   256,  2201,  3933</quad4>
			<quad4 id="18">  1177,  3934,  2202,   256</quad4>
			<quad4 id="19">  3934,  2222,   773,  2202</quad4>
			<quad4 id="20">  1179,     3,  1178,  3932</quad4>
<!-- ... 4012 like lines cut -->
		</Surface>
	</Geometry>
	<Initial>
		<init bc="T" node_set="Nodes">
			<value>25</value>
		</init>
	</Initial>
	<Loads>
		<surface_load name="flux" type="convective_heatflux" surface="ConvectiveHeatFlux1">
			<hc>3</hc>
			<Ta>25</Ta>
		</surface_load>
		<body_load name="heatSource" type="heat_source">
			<Q>100</Q>
		</body_load>
	</Loads>
</febio_spec>
