<?xml version="1.0" encoding="ISO-8859-1"?>
<febio_spec version="4.0">
	<Module type="heat"/>
	<Control>
		<analysis>TRANSIENT</analysis>
		<time_steps>10000</time_steps>
		<step_size>10000</step_size>
		<plot_level>PLOT_NEVER</plot_level>
		<output_level>OUTPUT_NEVER</output_level>
		<solver type="heat">
			<symmetric_stiffness>symmetric</symmetric_stiffness>
			<equation_scheme>staggered</equation_scheme>
			<equation_order>default</equation_order>
			<optimize_bw>0</optimize_bw>
		</solver>
	</Control>
	<Material>
		<material id="1" name="Material2" type="isotropic Fourier">
			<density>1000</density>
			<k>0.56</k>
			<c>4181.3</c>
		</material>
	</Material>
	<Mesh>
		<Nodes name="Object01">
			<node id="1">0.059373755,-0.47448703,-0.0035703285</node>
			<node id="2">0.059373755,-0.47448703,0.076659501</node>
			<node id="3">0.059373755,-0.36198703,-0.0035703285</node>
			<node id="4">0.059373755,-0.36198703,0.076659501</node>
			<node id="5">0.15892157,-0.47448703,-0.0035703285</node>
			<node id="6">0.15892157,-0.47448703,0.076659501</node>
			<node id="7">0.15892157,-0.36198703,-0.0035703285</node>
			<node id="8">0.15892157,-0.36198703,0.076659501</node>
			<node id="9">0.052715846,-0.58718992,-0.0035703285</node>
			<node id="10">0.052715846,-0.58718992,0.037870021</node>
			<node id="11">0.16082186,-0.58698703,-0.0035703285</node>
			<node id="12">0.16082186,-0.58698703,0.037870021</node>
			<node id="13">0.059373755,-0.64055632,-0.0035703285</node>
			<node id="14">0.059373755,-0.64055632,0.037870021</node>
			<node id="15">0.14785476,-0.63536313,-0.0035703285</node>
			<node id="16">0.14785476,-0.63536313,0.037870021</node>
			<node id="17">0.068029386,-0.46161784,0.12627281</node>
			<node id="18">0.068029386,-0.38217351,0.12627281</node>
			<node id="19">0.15026593,-0.46161784,0.12627281</node>
			<node id="20">0.15026593,-0.38217351,0.12627281</node>
<!-- ... 6585 like lines cut -->
		</Nodes>
		<Elements type="hex8" name="Part1">
			<elem id="1">1,1170,3927,1169,1168,3956,6062,3926</elem>
			<elem id="2">1170,257,2203,3927,3956,2205,3929,6062</elem>
			<elem id="3">1169,3927,2202,256,3926,6062,3931,2201</elem>
			<elem id="4">3927,2203,773,2202,6062,3929,3521,3931</elem>
			<elem id="5">1168,3956,6062,3926,255,2200,3941,2198</elem>
			<elem id="6">3956,2205,3929,6062,2200,778,3526,3941</elem>
			<elem id="7">3926,6062,3931,2201,2198,3941,3520,772</elem>
			<elem id="8">6062,3929,3521,3931,3941,3526,1100,3520</elem>
			<elem id="9">257,1184,3930,2203,2205,3960,6063,3929</elem>
			<elem id="10">1184,5,1186,3930,3960,1185,3928,6063</elem>
			<elem id="11">2203,3930,2232,773,3929,6063,3935,3521</elem>
			<elem id="12">3930,1186,268,2232,6063,3928,2231,3935</elem>
			<elem id="13">2205,3960,6063,3929,778,2230,3944,3526</elem>
			<elem id="14">3960,1185,3928,6063,2230,267,2228,3944</elem>
			<elem id="15">3929,6063,3935,3521,3526,3944,3518,1100</elem>
			<elem id="16">6063,3928,2231,3935,3944,2228,770,3518</elem>
			<elem id="17">256,2202,3934,1177,2201,3931,6064,3933</elem>
			<elem id="18">2202,773,2222,3934,3931,3521,3938,6064</elem>
			<elem id="19">1177,3934,1179,3,3933,6064,3932,1178</elem>
			<elem id="20">3934,2222,264,1179,6064,3938,2221,3932</elem>
<!-- ... 4332 like lines cut -->
		</Elements>
		<Surface name="flux">
			<quad4 id="1">1169,1,1168,3926</quad4>
			<quad4 id="2">256,1169,3926,2201</quad4>
			<quad4 id="3">3926,1168,255,2198</quad4>
			<quad4 id="4">2201,3926,2198,772</quad4>
			<quad4 id="5">1177,256,2201,3933</quad4>
			<quad4 id="6">3,1177,3933,1178</quad4>
			<quad4 id="7">3933,2201,772,2220</quad4>
			<quad4 id="8">1178,3933,2220,263</quad4>
			<quad4 id="9">2198,255,1172,3940</quad4>
			<quad4 id="10">772,2198,3940,2208</quad4>
			<quad4 id="11">3940,1172,2,1173</quad4>
			<quad4 id="12">2208,3940,1173,259</quad4>
			<quad4 id="13">2220,772,2208,3947</quad4>
			<quad4 id="14">263,2220,3947,1181</quad4>
			<quad4 id="15">3947,2208,259,1180</quad4>
			<quad4 id="16">1181,3947,1180,4</quad4>
			<quad4 id="17">1168,1,1171,3955</quad4>
			<quad4 id="18">255,1168,3955,2199</quad4>
			<quad4 id="19">3955,1171,258,2207</quad4>
			<quad4 id="20">2199,3955,2207,777</quad4>
<!-- ... 3916 like lines cut -->
		</Surface>
	</Mesh>
	<MeshDomains>
		<SolidDomain name="Part1" mat="Material2"/>
	</MeshDomains>
	<Loads>
		<surface_load name="flux" surface="flux" type="convective_heatflux">
			<hc>3</hc>
			<Ta>25</Ta>
		</surface_load>
		<body_load name="heatSource" type="heat_source">
			<Q>100</Q>
		</body_load>
	</Loads>
	<Initial>
		<ic name="InitialTemperature1" node_set="@elem_set:Part1" type="initial temperature">
			<value>25</value>
		</ic>
	</Initial>
</febio_spec>
