<?xml version="1.0" encoding="ISO-8859-1"?>
<febio_spec version="4.0">
	<Module type="solid"/>
	<Control>
		<analysis>STATIC</analysis>
		<time_steps>10</time_steps>
		<step_size>0.1</step_size>
		<plot_zero_state>0</plot_zero_state>
		<plot_range>0,-1</plot_range>
		<plot_level>PLOT_NEVER</plot_level>
		<output_level>OUTPUT_NEVER</output_level>
		<plot_stride>1</plot_stride>
		<output_stride>1</output_stride>
		<adaptor_re_solve>1</adaptor_re_solve>
		<time_stepper type="default">
			<max_retries>5</max_retries>
			<opt_iter>11</opt_iter>
			<dtmin>0</dtmin>
			<dtmax>0.1</dtmax>
			<aggressiveness>0</aggressiveness>
			<cutback>0.5</cutback>
			<dtforce>0</dtforce>
		</time_stepper>
		<solver type="solid">
			<symmetric_stiffness>symmetric</symmetric_stiffness>
			<equation_scheme>staggered</equation_scheme>
			<equation_order>default</equation_order>
			<optimize_bw>0</optimize_bw>
			<lstol>0.9</lstol>
			<lsmin>0.01</lsmin>
			<lsiter>5</lsiter>
			<max_refs>15</max_refs>
			<check_zero_diagonal>0</check_zero_diagonal>
			<zero_diagonal_tol>0</zero_diagonal_tol>
			<force_partition>0</force_partition>
			<reform_each_time_step>1</reform_each_time_step>
			<reform_augment>0</reform_augment>
			<diverge_reform>1</diverge_reform>
			<min_residual>1e-20</min_residual>
			<max_residual>0</max_residual>
			<dtol>0.001</dtol>
			<etol>0.01</etol>
			<rtol>0</rtol>
			<rhoi>-2</rhoi>
			<alpha>1</alpha>
			<beta>0.25</beta>
			<gamma>0.5</gamma>
			<logSolve>0</logSolve>
			<arc_length>0</arc_length>
			<arc_length_scale>0</arc_length_scale>
			<qn_method type="BFGS">
				<max_ups>10</max_ups>
				<max_buffer_size>0</max_buffer_size>
				<cycle_buffer>1</cycle_buffer>
				<cmax>100000</cmax>
			</qn_method>
		</solver>
	</Control>
	<Globals>
		<Constants>
			<T>0</T>
			<P>0</P>
			<R>8.31446</R>
			<Fc>96485.3</Fc>
		</Constants>
	</Globals>
	<Material>
		<material id="1" name="Material1" type="neo-Hookean">
			<density>1</density>
			<E>1</E>
			<v>0</v>
		</material>
		<material id="2" name="Material2" type="neo-Hookean">
			<density>1</density>
			<E>1</E>
			<v>0</v>
		</material>
	</Material>
	<Mesh>
		<Nodes name="Object1">
			<node id="1">-1,-0.25,0</node>
			<node id="2">1,-0.25,0</node>
			<node id="3">1,0.25,0</node>
			<node id="4">-1,0.25,0</node>
			<node id="5">-1,-0.25,0.5</node>
			<node id="6">1,-0.25,0.5</node>
			<node id="7">1,0.25,0.5</node>
			<node id="8">-1,0.25,0.5</node>
			<node id="9">-0.0960906234,0.172196512,0.431562878</node>
			<node id="10">-0.464294162,-0.0573512763,0</node>
			<node id="11">-0.757,-0.25,0</node>
			<node id="12">-0.105990293,-0.126872728,0.404481699</node>
			<node id="13">0.718230708,0.13203824,0</node>
			<node id="14">-0.518617,-0.25,0</node>
			<node id="15">0.0875478138,0.138008845,0.281286046</node>
			<node id="16">2.22044605e-16,-0.25,0.1598811</node>
			<node id="17">-0.16518295,-0.25,0</node>
			<node id="18">0,-0.25,0</node>
			<node id="19">0.15417593,0.115700224,0.119498525</node>
			<node id="20">-0.83966378,-0.25,0.135408043</node>
<!-- ... 218 like lines cut -->
		</Nodes>
		<Elements type="tet4" name="Part1">
			<elem id="1">1,11,154,20</elem>
			<elem id="2">1,154,147,112</elem>
			<elem id="4">197,17,196,123</elem>
			<elem id="5">208,193,152,145</elem>
			<elem id="6">1,154,112,217</elem>
			<elem id="7">79,206,76,109</elem>
			<elem id="8">98,9,99,97</elem>
			<elem id="9">98,32,9,97</elem>
			<elem id="10">45,72,219,37</elem>
			<elem id="11">129,197,206,136</elem>
			<elem id="12">77,238,93,82</elem>
			<elem id="16">11,145,154,119</elem>
			<elem id="21">174,42,97,157</elem>
			<elem id="23">17,123,18,196</elem>
			<elem id="24">84,131,4,92</elem>
			<elem id="27">11,14,152,119</elem>
			<elem id="28">11,152,145,119</elem>
			<elem id="29">11,152,14,193</elem>
			<elem id="30">11,152,193,145</elem>
			<elem id="34">41,183,12,184</elem>
<!-- ... 389 like lines cut -->
		</Elements>
		<Elements type="tet4" name="Part4">
			<elem id="3">13,39,67,126</elem>
			<elem id="13">21,130,198,148</elem>
			<elem id="14">102,233,103,156</elem>
			<elem id="15">149,133,121,22</elem>
			<elem id="17">222,141,194,58</elem>
			<elem id="18">86,143,23,149</elem>
			<elem id="19">172,66,156,163</elem>
			<elem id="20">67,39,211,126</elem>
			<elem id="22">19,101,15,237</elem>
			<elem id="25">106,65,62,38</elem>
			<elem id="26">73,35,127,19</elem>
			<elem id="31">40,166,41,55</elem>
			<elem id="32">195,222,58,141</elem>
			<elem id="33">40,55,41,184</elem>
			<elem id="36">203,135,86,132</elem>
			<elem id="37">61,28,207,7</elem>
			<elem id="43">231,15,31,229</elem>
			<elem id="44">21,146,150,16</elem>
			<elem id="45">231,31,99,229</elem>
			<elem id="46">103,223,178,220</elem>
<!-- ... 420 like lines cut -->
		</Elements>
		<Surface name="ZeroDisplacement1">
			<tri3 id="1">1,217,112</tri3>
			<tri3 id="2">27,216,225</tri3>
			<tri3 id="3">213,8,88</tri3>
			<tri3 id="4">114,8,213</tri3>
			<tri3 id="5">27,217,216</tri3>
			<tri3 id="6">88,216,213</tri3>
			<tri3 id="7">5,114,215</tri3>
			<tri3 id="8">216,215,213</tri3>
			<tri3 id="9">4,112,27</tri3>
			<tri3 id="10">52,5,215</tri3>
			<tri3 id="11">27,112,217</tri3>
			<tri3 id="12">4,27,225</tri3>
			<tri3 id="13">215,114,213</tri3>
			<tri3 id="14">225,216,88</tri3>
			<tri3 id="15">52,215,217</tri3>
			<tri3 id="16">1,52,217</tri3>
			<tri3 id="17">217,215,216</tri3>
		</Surface>
		<Surface name="PrescribedDisplacement2">
			<tri3 id="1">222,58,194</tri3>
			<tri3 id="2">61,7,207</tri3>
			<tri3 id="3">2,222,194</tri3>
			<tri3 id="4">63,205,207</tri3>
			<tri3 id="5">6,205,63</tri3>
			<tri3 id="6">7,63,207</tri3>
			<tri3 id="7">29,202,50</tri3>
			<tri3 id="8">58,200,194</tri3>
			<tri3 id="9">202,207,205</tri3>
			<tri3 id="10">50,205,6</tri3>
			<tri3 id="11">3,214,58</tri3>
			<tri3 id="12">200,61,207</tri3>
			<tri3 id="13">194,200,202</tri3>
			<tri3 id="14">29,194,202</tri3>
			<tri3 id="15">202,205,50</tri3>
			<tri3 id="16">200,207,202</tri3>
			<tri3 id="17">2,194,29</tri3>
			<tri3 id="18">58,214,200</tri3>
			<tri3 id="19">214,61,200</tri3>
		</Surface>
	</Mesh>
	<MeshDomains>
		<SolidDomain name="Part1" mat="Material1"/>
		<SolidDomain name="Part4" mat="Material2"/>
	</MeshDomains>
	<Boundary>
		<bc name="ZeroDisplacement1" node_set="@surface:ZeroDisplacement1" type="zero displacement">
			<x_dof>1</x_dof>
			<y_dof>1</y_dof>
			<z_dof>1</z_dof>
		</bc>
		<bc name="PrescribedDisplacement2" node_set="@surface:PrescribedDisplacement2" type="prescribed displacement">
			<dof>x</dof>
			<value lc="1">1</value>
			<relative>0</relative>
		</bc>
		<bc name="ZeroDisplacement3" node_set="@surface:PrescribedDisplacement2" type="zero displacement">
			<x_dof>0</x_dof>
			<y_dof>1</y_dof>
			<z_dof>1</z_dof>
		</bc>
	</Boundary>
	<LoadData>
		<load_controller id="1" name="LC1" type="loadcurve">
			<interpolate>LINEAR</interpolate>
			<extend>CONSTANT</extend>
			<points>
				<pt>0,0</pt>
				<pt>1,1</pt>
			</points>
		</load_controller>
	</LoadData>
</febio_spec>
